# CF3C(=O)CF3 C1 opt + freq: am1
# Created by GaussView 3.09
#

#
#

@<TRIPOS>MOLECULE
Molecule Name
10 9
SMALL
NO_CHARGES


@<TRIPOS>ATOM
1 C1     1.3242    -0.0781    -0.0003 C
2 C2     0.0000     0.7512    -0.0000 C
3 C3    -1.3242    -0.0781     0.0003 C
4 O4     0.0000     1.9669    -0.0000 O
5 F5     2.3853     0.6201    -0.5075 F
6 F6     1.2499    -1.2252    -0.7416 F
7 F7     1.7015    -0.4674     1.2564 F
8 F8    -1.2499    -1.2251     0.7418 F
9 F9    -1.7016    -0.4675    -1.2564 F
10 F10    -2.3853     0.6202     0.5074 F
@<TRIPOS>BOND
1 1 2 1
2 1 5 1
3 1 6 1
4 1 7 1
5 2 3 1
6 2 4 2
7 3 8 1
8 3 9 1
9 3 10 1
