@<TRIPOS>MOLECULE
ALA
   13    12     1     0     0
SMALL
GASTEIGER


@<TRIPOS>ATOM
      1 H1         -2.1085   -0.8981    5.9290 H         1 <1>         0.0288 
      2 H2         -2.1084    0.8981    5.9290 H         1 <1>         0.0288 
      3 H3         -2.6269   -0.0001    4.4623 H         1 <1>         0.0288 
      4 H4         -4.5861   -0.8982    5.7050 H         1 <1>         0.0912 
      5 H5         -5.7109    1.2001    5.9176 H         1 <1>         0.2000 
      6 H6         -4.7607    1.2002    4.5736 H         1 <1>         0.2000 
      7 C          -2.6270    0.0000    5.5623 C.3       1 <1>        -0.0162 
      8 C          -4.0676    0.0000    6.0716 C.3       1 <1>         0.0131 
      9 N          -4.7606    1.2002    5.5816 N.4       1 <1>         0.2247 
     10 C          -4.0676    0.0000    7.5816 C.2       1 <1>         0.0891 
     11 O          -3.5394    0.9150    8.1916 O.co2     1 <1>        -0.5442 
     12 O          -4.6392   -0.9900    8.2416 O.co2     1 <1>        -0.5442 
     13 H7         -4.2855    2.0233    5.9176 H         1 <1>         0.2000 
@<TRIPOS>BOND
     1    7    1 1    
     2    7    2 1    
     3    7    3 1    
     4    8    4 1    
     5    9    5 1    
     6    9    6 1    
     7    9   13 1    
     8    7    8 1    
     9    8    9 1    
    10    8   10 1    
    11   10   11 ar   
    12   10   12 ar   
